#############################################################
#             ______       _    _          _                #
#            (_____ \     \ \  / /        | |               #
#             _____) )   _ \ \/ / |_  ____| |               #
#            |  ____/ | | | )  (|  _)/ _  | |               #
#            | |    | |_| |/ /\ \ |_( (_| | |___            #
#            |_|     \__  /_/  \_\___)__|_|_____)           #
#                   (____/                                  #
#---------------------(version    1.1.1)--------------------#
#       A Python package for random crystal generation      #
#       url: https://github.com/qzhu2017/pyxtal             #
#       @Zhu's group at U. North Carolina at Charlotte      #
#############################################################
data_from_pyxtal

_symmetry_space_group_name_H-M 'P1'
_symmetry_Int_Tables_number                    1
_symmetry_cell_setting                 triclinic
_cell_length_a            6.595122
_cell_length_b           16.500626
_cell_length_c            8.478577
_cell_angle_alpha        76.629522
_cell_angle_beta         58.262367
_cell_angle_gamma        86.786949
_cell_volume            761.027039

loop_
 _symmetry_equiv_pos_site_id
 _symmetry_equiv_pos_as_xyz
1 'x, y, z'

loop_
 _atom_site_label
 _atom_site_type_symbol
 _atom_site_symmetry_multiplicity
 _atom_site_fract_x
 _atom_site_fract_y
 _atom_site_fract_z
 _atom_site_occupancy
C      C        1     0.066307    0.622738    0.633508 1
H      H        1    -0.054477    0.581547    0.632108 1
C      C        1    -0.020311    0.681888    0.741990 1
C      C        1     0.134564    0.735168    0.744357 1
C      C        1     0.382029    0.728796    0.635177 1
C      C        1     0.469419    0.669753    0.526511 1
H      H        1     0.659040    0.663327    0.440946 1
C      C        1     0.312734    0.616688    0.525151 1
C      C        1     0.402723    0.554522    0.411565 1
H      H        1     0.269063    0.515096    0.417615 1
C      C        1     0.929136    0.474526    0.097294 1
C      C        1     1.179141    0.391526   -0.107523 1
H      H        1     1.159904    0.340879   -0.162171 1
H      H        1     1.267707    0.371370   -0.028401 1
H      H        1     1.284391    0.445207   -0.224601 1
C      C        1     0.767939    0.779064    0.539238 1
H      H        1     0.842338    0.826983    0.567935 1
H      H        1     0.837347    0.792259    0.386099 1
H      H        1     0.820570    0.718009    0.583394 1
C      C        1    -0.428697    0.644633    0.863195 1
H      H        1    -0.601566    0.665058    0.959183 1
H      H        1    -0.422038    0.578540    0.920151 1
H      H        1    -0.405230    0.652927    0.722492 1
N      N        1     0.625931    0.546029    0.309698 1
N      N        1     0.692032    0.486907    0.209650 1
H      H        1     0.569526    0.450312    0.214628 1
O      O        1     0.517622    0.782824    0.646361 1
O      O        1     0.049013    0.792472    0.850123 1
H      H        1    -0.122556    0.786423    0.912897 1
O      O        1    -0.255698    0.695001    0.854547 1
O      O        1     0.942200    0.411942    0.014686 1
O      O        1     1.096737    0.511792    0.074681 1
#END


# ShiftML3_cs_iso
[ 68.66355961  24.32077933  21.19037299  29.83806527  22.25715747
  71.43743491  23.95565171  45.05438271  32.34238407  22.41518939
  19.02254765 122.04920379  27.47301271  27.56972302  27.14340677
 118.78315778  28.12404951  27.87503879  26.78107402 114.8179018
  28.06782071  27.78200156  26.7408879  -84.13120222  74.98462709
  21.0734858  199.87917019 207.90829095  25.35674457 205.89914751
 166.58991139  18.5163024 ]
